Version 4
SHEET 1 2128 680
WIRE 1344 -208 1200 -208
WIRE 1376 -208 1344 -208
WIRE 1472 -208 1440 -208
WIRE 1696 -208 1472 -208
WIRE 1808 -192 1760 -192
WIRE 2048 -192 1808 -192
WIRE 1696 -176 1616 -176
WIRE 1344 -128 1344 -208
WIRE 1472 -128 1472 -208
WIRE 2048 -112 2048 -192
WIRE 720 -96 416 -96
WIRE 1616 -48 1616 -176
WIRE 1680 -48 1616 -48
WIRE 1808 -48 1808 -192
WIRE 1808 -48 1760 -48
WIRE 416 -32 416 -96
WIRE 288 -16 16 -16
WIRE 1616 -16 1616 -48
WIRE 2048 -16 2048 -32
WIRE 288 32 144 32
WIRE 1344 32 1344 -48
WIRE 1472 32 1472 -48
WIRE 16 48 16 -16
WIRE 144 48 144 32
WIRE 1616 80 1616 64
WIRE 16 160 16 128
WIRE 144 160 144 128
WIRE 416 160 416 48
WIRE 752 160 752 64
WIRE 912 160 912 64
WIRE 1616 176 1616 144
WIRE 752 368 752 240
WIRE 912 368 912 240
FLAG 16 160 0
FLAG 288 -16 Vin1
IOPIN 288 -16 Out
FLAG 144 160 0
FLAG 288 32 Vin2
IOPIN 288 32 Out
FLAG 416 160 0
FLAG 720 -96 SIG
IOPIN 720 -96 Out
FLAG 1200 -208 SIG
IOPIN 1200 -208 Out
FLAG 1344 32 0
FLAG 1472 32 0
FLAG 752 368 0
FLAG 752 64 Vcc
FLAG 912 368 0
FLAG 912 64 Vee
FLAG 1728 -160 Vcc
FLAG 1728 -224 Vee
FLAG 1616 176 0
FLAG 2048 -16 0
SYMBOL bv 416 -48 R0
WINDOW 3 -199 -101 Left 2
SYMATTR Value V= 8+V(Vin1) +V(Vin1)*V(Vin2)
SYMATTR InstName B1
SYMBOL voltage 16 32 R0
WINDOW 123 0 0 Left 0
WINDOW 39 0 0 Left 0
WINDOW 3 -140 159 Left 2
SYMATTR Value SINE(0 0.5 40k)
SYMATTR InstName V1
SYMBOL voltage 144 32 R0
WINDOW 123 0 0 Left 0
WINDOW 39 0 0 Left 0
WINDOW 3 -35 163 Left 2
SYMATTR Value SINE(0 0.6 400)
SYMATTR InstName V2
SYMBOL OpAmps\\LT1885 1728 -192 M180
SYMATTR InstName U1
SYMBOL res 1328 -144 R0
SYMATTR InstName R1
SYMATTR Value 100k
SYMBOL res 1456 -144 R0
SYMATTR InstName R2
SYMATTR Value 220k
SYMBOL cap 1440 -224 R90
WINDOW 0 0 32 VBottom 2
WINDOW 3 32 32 VTop 2
SYMATTR InstName C1
SYMATTR Value 1µ
SYMBOL voltage 752 144 R0
WINDOW 123 0 0 Left 0
WINDOW 39 0 0 Left 0
SYMATTR InstName V3
SYMATTR Value 12
SYMBOL voltage 912 256 R180
WINDOW 123 0 0 Left 0
WINDOW 39 0 0 Left 0
SYMATTR InstName V4
SYMATTR Value 12
SYMBOL polcap 1600 80 R0
WINDOW 3 24 56 Left 2
SYMATTR InstName C2
SYMATTR Value 22µ
SYMATTR Description Capacitor
SYMATTR Type cap
SYMATTR SpiceLine V=35 Irms=413m Rser=0.22 Lser=0
SYMBOL res 1600 -32 R0
SYMATTR InstName R3
SYMATTR Value 1k
SYMBOL res 1776 -64 R90
WINDOW 0 0 56 VBottom 2
WINDOW 3 32 56 VTop 2
SYMATTR InstName R4
SYMATTR Value 10k
SYMBOL res 2032 -128 R0
SYMATTR InstName R5
SYMATTR Value 10k
TEXT -104 -104 Left 2 !.tran 40ms
TEXT -104 -72 Left 2 !.options plotwinsize=0
RECTANGLE Normal 528 128 240 -128 1
