Version 4
SHEET 1 2352 708
WIRE 1696 -208 1472 -208
WIRE 1808 -192 1760 -192
WIRE 2048 -192 1808 -192
WIRE 1696 -176 1616 -176
WIRE 2048 -112 2048 -192
WIRE 720 -96 416 -96
WIRE 1616 -48 1616 -176
WIRE 1680 -48 1616 -48
WIRE 1808 -48 1808 -192
WIRE 1808 -48 1760 -48
WIRE 416 -32 416 -96
WIRE 288 -16 16 -16
WIRE 1616 -16 1616 -48
WIRE 2048 -16 2048 -32
WIRE 288 32 144 32
WIRE 16 48 16 -16
WIRE 144 48 144 32
WIRE 1616 80 1616 64
WIRE 16 160 16 128
WIRE 144 160 144 128
WIRE 416 160 416 48
WIRE 752 160 752 64
WIRE 912 160 912 64
WIRE 1616 176 1616 144
WIRE 1632 288 1520 288
WIRE 1792 320 1776 320
WIRE 2032 320 1792 320
WIRE 1632 352 1600 352
WIRE 752 368 752 240
WIRE 912 368 912 240
WIRE 208 384 64 384
WIRE 240 384 208 384
WIRE 336 384 304 384
WIRE 416 384 336 384
WIRE 2032 400 2032 320
WIRE 208 464 208 384
WIRE 336 464 336 384
WIRE 1600 464 1600 352
WIRE 1664 464 1600 464
WIRE 1792 464 1792 320
WIRE 1792 464 1744 464
WIRE 1600 496 1600 464
WIRE 2032 496 2032 480
WIRE 1600 592 1600 576
WIRE 208 624 208 544
WIRE 336 624 336 544
WIRE 1600 688 1600 656
FLAG 16 160 0
FLAG 288 -16 Vin1
IOPIN 288 -16 Out
FLAG 144 160 0
FLAG 288 32 Vin2
IOPIN 288 32 Out
FLAG 416 160 0
FLAG 720 -96 SIG
IOPIN 720 -96 Out
FLAG 64 384 SIG
IOPIN 64 384 Out
FLAG 208 624 0
FLAG 336 624 0
FLAG 752 368 0
FLAG 752 64 Vcc
FLAG 912 368 0
FLAG 912 64 Vee
FLAG 1728 -160 Vcc
FLAG 1728 -224 Vee
FLAG 1616 176 0
FLAG 2048 -16 0
FLAG 1664 400 Vcc
FLAG 1664 240 Vee
FLAG 1600 688 0
FLAG 2032 496 0
FLAG 416 384 SIG_AC
FLAG 1520 288 SIG_AC
FLAG 1472 -208 SIG_AC
SYMBOL bv 416 -48 R0
WINDOW 3 -199 -101 Left 2
SYMATTR Value V= 8+V(Vin1) +V(Vin1)*V(Vin2)
SYMATTR InstName B1
SYMBOL voltage 16 32 R0
WINDOW 123 0 0 Left 0
WINDOW 39 0 0 Left 0
WINDOW 3 -140 159 Left 2
SYMATTR Value SINE(0 0.5 40k)
SYMATTR InstName V1
SYMBOL voltage 144 32 R0
WINDOW 123 0 0 Left 0
WINDOW 39 0 0 Left 0
WINDOW 3 -35 163 Left 2
SYMATTR Value SINE(0 0.6 400)
SYMATTR InstName V2
SYMBOL OpAmps\\LT1885 1728 -192 M180
SYMATTR InstName U1
SYMBOL res 192 448 R0
SYMATTR InstName R1
SYMATTR Value 100k
SYMBOL res 320 448 R0
SYMATTR InstName R2
SYMATTR Value 220k
SYMBOL cap 304 368 R90
WINDOW 0 0 32 VBottom 2
WINDOW 3 32 32 VTop 2
SYMATTR InstName C1
SYMATTR Value 1µ
SYMBOL voltage 752 144 R0
WINDOW 123 0 0 Left 0
WINDOW 39 0 0 Left 0
SYMATTR InstName V3
SYMATTR Value 12
SYMBOL voltage 912 256 R180
WINDOW 123 0 0 Left 0
WINDOW 39 0 0 Left 0
SYMATTR InstName V4
SYMATTR Value 12
SYMBOL polcap 1600 80 R0
WINDOW 3 24 56 Left 2
SYMATTR Value 22µ
SYMATTR InstName C2
SYMATTR Description Capacitor
SYMATTR Type cap
SYMATTR SpiceLine V=35 Irms=413m Rser=0.22 Lser=0
SYMBOL res 1600 -32 R0
SYMATTR InstName R3
SYMATTR Value 1k
SYMBOL res 1776 -64 R90
WINDOW 0 0 56 VBottom 2
WINDOW 3 32 56 VTop 2
SYMATTR InstName R4
SYMATTR Value 10k
SYMBOL res 2032 -128 R0
SYMATTR InstName R5
SYMATTR Value 10k
SYMBOL OpAmps\\LT1210 1664 320 M180
SYMATTR InstName U2
SYMBOL polcap 1584 592 R0
WINDOW 3 24 56 Left 2
SYMATTR Value 22µ
SYMATTR InstName C4
SYMATTR Description Capacitor
SYMATTR Type cap
SYMATTR SpiceLine V=35 Irms=413m Rser=0.22 Lser=0
SYMBOL res 1584 480 R0
SYMATTR InstName R8
SYMATTR Value 1k
SYMBOL res 1760 448 R90
WINDOW 0 0 56 VBottom 2
WINDOW 3 32 56 VTop 2
SYMATTR InstName R9
SYMATTR Value 10k
SYMBOL res 2016 384 R0
SYMATTR InstName R10
SYMATTR Value 10k
TEXT -104 -104 Left 2 !.tran 40ms
TEXT -104 -72 Left 2 !.options plotwinsize=0
RECTANGLE Normal 528 128 240 -128 1
