Version 4
SHEET 1 964 680
WIRE 432 96 368 96
WIRE 736 96 512 96
WIRE 880 96 736 96
WIRE 112 128 112 80
WIRE 736 128 736 96
WIRE 736 224 736 208
WIRE 880 224 880 96
WIRE 112 272 112 208
WIRE 736 320 736 288
WIRE 736 432 736 400
WIRE 880 432 880 288
WIRE 880 432 736 432
WIRE 736 480 736 432
FLAG 112 272 0
FLAG 112 80 SIG
FLAG 368 96 SIG
FLAG 736 480 0
SYMBOL voltage 112 112 R0
WINDOW 123 0 0 Left 0
WINDOW 39 0 0 Left 0
SYMATTR InstName V1
SYMATTR Value SINE(0 8 {F})
SYMBOL res 528 80 R90
WINDOW 0 0 56 VBottom 2
WINDOW 3 32 56 VTop 2
SYMATTR InstName R1
SYMATTR Value 5
SYMBOL ind 720 112 R0
SYMATTR InstName L2
SYMATTR Value 120m
SYMBOL cap 720 224 R0
SYMATTR InstName C1
SYMATTR Value 130p
SYMBOL res 720 304 R0
SYMATTR InstName R2
SYMATTR Value 800
SYMBOL cap 864 224 R0
SYMATTR InstName C2
SYMATTR Value 2100p
TEXT -32 264 Left 2 !.tran 10m
TEXT 8 384 Left 2 !.step param F list 36k 40k 44k 48k
