Version 4
SHEET 1 880 680
WIRE 432 96 368 96
WIRE 576 96 512 96
WIRE 736 96 656 96
WIRE 112 128 112 80
WIRE 736 192 736 96
WIRE 112 272 112 208
WIRE 736 320 736 256
FLAG 112 272 0
FLAG 112 80 SIG
FLAG 368 96 SIG
FLAG 736 320 0
SYMBOL voltage 112 112 R0
WINDOW 123 0 0 Left 0
WINDOW 39 0 0 Left 0
SYMATTR InstName V1
SYMATTR Value SINE(0 8 40k)
SYMBOL ind 672 80 R90
WINDOW 0 5 56 VBottom 2
WINDOW 3 32 56 VTop 2
SYMATTR InstName L1
SYMATTR Value 7m
SYMBOL res 528 80 R90
WINDOW 0 0 56 VBottom 2
WINDOW 3 32 56 VTop 2
SYMATTR InstName R1
SYMATTR Value 5
SYMBOL cap 720 192 R0
SYMATTR InstName C1
SYMATTR Value 2000p
TEXT -34 264 Left 2 !.tran 10m
